   44
cell= 10.00000000 0.00000000 0.00000000 0.00000000 10.00000000 0.00000000 0.00000000 0.00000000 10.00000000  nsc= 1 1 1
C   -3.68926822  -2.13000000  0.00000000
C   -3.68926822  -0.71000000  0.00000000
C   -2.45951214  -2.84000000  0.00000000
C   -1.22975607  -2.13000000  0.00000000
C   -1.22975607  -0.71000000  0.00000000
C   -2.45951214  -0.00000000  0.00000000
C   -0.00000000  -2.84000000  0.00000000
C   1.22975608  -2.13000000  0.00000000
C   1.22975608  -0.71000000  0.00000000
C   -0.00000000  -0.00000000  0.00000000
C   2.45951215  -2.84000000  0.00000000
C   3.68926822  -2.13000000  0.00000000
C   3.68926822  -0.71000000  0.00000000
C   2.45951215  -0.00000000  0.00000000
C   -2.45951214  1.42000000  0.00000000
C   -1.22975607  2.13000000  0.00000000
C   0.00000001  1.42000000  0.00000000
C   1.22975608  2.13000000  0.00000000
C   2.45951215  1.42000000  0.00000000
C   -1.22975607  3.55000000  0.00000000
C   -0.00000000  4.26000000  0.00000000
C   1.22975608  3.55000000  0.00000000
C   3.68926822  -4.97000000  0.00000000
C   3.68926822  -6.39000000  0.00000000
C   2.45951214  -4.26000000  0.00000000
C   1.22975607  -4.97000000  0.00000000
C   1.22975607  -6.39000000  0.00000000
C   2.45951214  -7.10000000  0.00000000
C   0.00000000  -4.26000000  0.00000000
C   -1.22975608  -4.97000000  0.00000000
C   -1.22975608  -6.39000000  0.00000000
C   0.00000000  -7.10000000  0.00000000
C   -2.45951215  -4.26000000  0.00000000
C   -3.68926822  -4.97000000  0.00000000
C   -3.68926822  -6.39000000  0.00000000
C   -2.45951215  -7.10000000  0.00000000
C   2.45951214  -8.52000000  0.00000000
C   1.22975607  -9.23000000  0.00000000
C   -0.00000001  -8.52000000  0.00000000
C   -1.22975608  -9.23000000  0.00000000
C   -2.45951215  -8.52000000  0.00000000
C   1.22975607  -10.65000000  0.00000000
C   0.00000000  -11.36000000  0.00000000
C   -1.22975608  -10.65000000  0.00000000

