   230
sisl-version=1 cell= 8.60829251 0.00000000 0.00000000 0.00000000 10.00000000 0.00000000 0.00000000 0.00000000 10.00000000  nsc= 1 1 1
C   -3.68926822  1.42000000  0.00000000
C   -3.68926822  2.84000000  0.00000000
C   -2.45951214  0.71000000  0.00000000
C   -1.22975607  1.42000000  0.00000000
C   -1.22975607  2.84000000  0.00000000
C   -2.45951214  3.55000000  0.00000000
C   -0.00000000  0.71000000  0.00000000
C   1.22975608  1.42000000  0.00000000
C   1.22975608  2.84000000  0.00000000
C   -0.00000000  3.55000000  0.00000000
C   2.45951215  0.71000000  0.00000000
C   3.68926822  1.42000000  0.00000000
C   3.68926822  2.84000000  0.00000000
C   2.45951215  3.55000000  0.00000000
C   -2.45951214  4.97000000  0.00000000
C   -1.22975607  5.68000000  0.00000000
C   0.00000001  4.97000000  0.00000000
C   1.22975608  5.68000000  0.00000000
C   2.45951215  4.97000000  0.00000000
C   -1.22975607  7.10000000  0.00000000
C   -0.00000000  7.81000000  0.00000000
C   1.22975608  7.10000000  0.00000000
C   3.68926822  -1.42000000  0.00000000
C   3.68926822  -2.84000000  0.00000000
C   2.45951214  -0.71000000  0.00000000
C   1.22975607  -1.42000000  0.00000000
C   1.22975607  -2.84000000  0.00000000
C   2.45951214  -3.55000000  0.00000000
C   -0.00000000  -0.71000000  0.00000000
C   -1.22975608  -1.42000000  0.00000000
C   -1.22975608  -2.84000000  0.00000000
C   -0.00000000  -3.55000000  0.00000000
C   -2.45951215  -0.71000000  0.00000000
C   -3.68926822  -1.42000000  0.00000000
C   -3.68926822  -2.84000000  0.00000000
C   -2.45951215  -3.55000000  0.00000000
C   2.45951214  -4.97000000  0.00000000
C   1.22975607  -5.68000000  0.00000000
C   -0.00000001  -4.97000000  0.00000000
C   -1.22975608  -5.68000000  0.00000000
C   -2.45951215  -4.97000000  0.00000000
C   1.22975607  -7.10000000  0.00000000
C   -0.00000000  -7.81000000  0.00000000
C   -1.22975608  -7.10000000  0.00000000
C   4.91902429  -0.71000000  0.00000000
C   4.91902429  0.71000000  0.00000000
C   6.14878037  -1.42000000  0.00000000
C   7.37853644  -0.71000000  0.00000000
C   7.37853644  0.71000000  0.00000000
C   6.14878037  1.42000000  0.00000000
C   8.60829251  -1.42000000  0.00000000
C   9.83804859  -0.71000000  0.00000000
C   9.83804859  0.71000000  0.00000000
C   8.60829251  1.42000000  0.00000000
C   11.06780466  -1.42000000  0.00000000
C   12.29756073  -0.71000000  0.00000000
C   12.29756073  0.71000000  0.00000000
C   11.06780466  1.42000000  0.00000000
C   6.14878037  2.84000000  0.00000000
C   7.37853644  3.55000000  0.00000000
C   8.60829252  2.84000000  0.00000000
C   9.83804859  3.55000000  0.00000000
C   11.06780466  2.84000000  0.00000000
C   7.37853644  4.97000000  0.00000000
C   8.60829251  5.68000000  0.00000000
C   9.83804859  4.97000000  0.00000000
C   12.29756073  -3.55000000  0.00000000
C   12.29756073  -4.97000000  0.00000000
C   11.06780465  -2.84000000  0.00000000
C   9.83804858  -3.55000000  0.00000000
C   9.83804858  -4.97000000  0.00000000
C   11.06780465  -5.68000000  0.00000000
C   8.60829251  -2.84000000  0.00000000
C   7.37853643  -3.55000000  0.00000000
C   7.37853643  -4.97000000  0.00000000
C   8.60829251  -5.68000000  0.00000000
C   6.14878036  -2.84000000  0.00000000
C   4.91902429  -3.55000000  0.00000000
C   4.91902429  -4.97000000  0.00000000
C   6.14878036  -5.68000000  0.00000000
C   11.06780465  -7.10000000  0.00000000
C   9.83804858  -7.81000000  0.00000000
C   8.60829250  -7.10000000  0.00000000
C   7.37853643  -7.81000000  0.00000000
C   6.14878036  -7.10000000  0.00000000
C   9.83804858  -9.23000000  0.00000000
C   8.60829251  -9.94000000  0.00000000
C   7.37853643  -9.23000000  0.00000000
C   13.52731681  -2.84000000  0.00000000
C   13.52731681  -1.42000000  0.00000000
C   14.75707289  -3.55000000  0.00000000
C   15.98682896  -2.84000000  0.00000000
C   15.98682896  -1.42000000  0.00000000
C   14.75707289  -0.71000000  0.00000000
C   17.21658503  -3.55000000  0.00000000
C   18.44634111  -2.84000000  0.00000000
C   18.44634111  -1.42000000  0.00000000
C   17.21658503  -0.71000000  0.00000000
C   19.67609718  -3.55000000  0.00000000
C   20.90585325  -2.84000000  0.00000000
C   20.90585325  -1.42000000  0.00000000
C   19.67609718  -0.71000000  0.00000000
C   14.75707289  0.71000000  0.00000000
C   15.98682896  1.42000000  0.00000000
C   17.21658504  0.71000000  0.00000000
C   18.44634111  1.42000000  0.00000000
C   19.67609718  0.71000000  0.00000000
C   15.98682896  2.84000000  0.00000000
C   17.21658503  3.55000000  0.00000000
C   18.44634111  2.84000000  0.00000000
C   20.90585325  -5.68000000  0.00000000
C   20.90585325  -7.10000000  0.00000000
C   19.67609717  -4.97000000  0.00000000
C   18.44634110  -5.68000000  0.00000000
C   18.44634110  -7.10000000  0.00000000
C   19.67609717  -7.81000000  0.00000000
C   17.21658503  -4.97000000  0.00000000
C   15.98682895  -5.68000000  0.00000000
C   15.98682895  -7.10000000  0.00000000
C   17.21658503  -7.81000000  0.00000000
C   14.75707288  -4.97000000  0.00000000
C   13.52731681  -5.68000000  0.00000000
C   13.52731681  -7.10000000  0.00000000
C   14.75707288  -7.81000000  0.00000000
C   19.67609717  -9.23000000  0.00000000
C   18.44634110  -9.94000000  0.00000000
C   17.21658502  -9.23000000  0.00000000
C   15.98682895  -9.94000000  0.00000000
C   14.75707288  -9.23000000  0.00000000
C   18.44634110  -11.36000000  0.00000000
C   17.21658503  -12.07000000  0.00000000
C   15.98682895  -11.36000000  0.00000000
C   22.13560932  -4.97000000  0.00000000
C   22.13560932  -3.55000000  0.00000000
C   23.36536540  -5.68000000  0.00000000
C   24.59512147  -4.97000000  0.00000000
C   24.59512147  -3.55000000  0.00000000
C   23.36536540  -2.84000000  0.00000000
C   25.82487754  -5.68000000  0.00000000
C   27.05463362  -4.97000000  0.00000000
C   27.05463362  -3.55000000  0.00000000
C   25.82487754  -2.84000000  0.00000000
C   28.28438969  -5.68000000  0.00000000
C   29.51414576  -4.97000000  0.00000000
C   29.51414576  -3.55000000  0.00000000
C   28.28438969  -2.84000000  0.00000000
C   23.36536540  -1.42000000  0.00000000
C   24.59512147  -0.71000000  0.00000000
C   25.82487755  -1.42000000  0.00000000
C   27.05463362  -0.71000000  0.00000000
C   28.28438969  -1.42000000  0.00000000
C   24.59512147  0.71000000  0.00000000
C   25.82487754  1.42000000  0.00000000
C   27.05463362  0.71000000  0.00000000
C   29.51414576  -7.81000000  0.00000000
C   29.51414576  -9.23000000  0.00000000
C   28.28438968  -7.10000000  0.00000000
C   27.05463361  -7.81000000  0.00000000
C   27.05463361  -9.23000000  0.00000000
C   28.28438968  -9.94000000  0.00000000
C   25.82487754  -7.10000000  0.00000000
C   24.59512146  -7.81000000  0.00000000
C   24.59512146  -9.23000000  0.00000000
C   25.82487754  -9.94000000  0.00000000
C   23.36536539  -7.10000000  0.00000000
C   22.13560932  -7.81000000  0.00000000
C   22.13560932  -9.23000000  0.00000000
C   23.36536539  -9.94000000  0.00000000
C   28.28438968  -11.36000000  0.00000000
C   27.05463361  -12.07000000  0.00000000
C   25.82487753  -11.36000000  0.00000000
C   24.59512146  -12.07000000  0.00000000
C   23.36536539  -11.36000000  0.00000000
C   27.05463361  -13.49000000  0.00000000
C   25.82487754  -14.20000000  0.00000000
C   24.59512146  -13.49000000  0.00000000
H   -4.64189617  0.87000000  0.00000000
H   -4.64189617  3.39000000  0.00000000
H   4.64189616  3.39000000  0.00000000
H   -3.41214008  5.52000000  0.00000000
H   3.41214009  5.52000000  0.00000000
H   -2.18238401  7.65000000  0.00000000
H   -0.00000001  8.91000000  0.00000000
H   2.18238403  7.65000000  0.00000000
H   -4.64189616  -0.87000000  0.00000000
H   -4.64189616  -3.39000000  0.00000000
H   3.41214008  -5.52000000  0.00000000
H   -3.41214009  -5.52000000  0.00000000
H   2.18238401  -7.65000000  0.00000000
H   0.00000001  -8.91000000  0.00000000
H   -2.18238403  -7.65000000  0.00000000
H   13.25018868  1.26000000  0.00000000
H   5.19615243  3.39000000  0.00000000
H   12.02043261  3.39000000  0.00000000
H   6.42590850  5.52000000  0.00000000
H   8.60829251  6.78000000  0.00000000
H   10.79067654  5.52000000  0.00000000
H   3.96639635  -5.52000000  0.00000000
H   12.02043260  -7.65000000  0.00000000
H   5.19615242  -7.65000000  0.00000000
H   10.79067653  -9.78000000  0.00000000
H   8.60829252  -11.04000000  0.00000000
H   6.42590849  -9.78000000  0.00000000
H   21.85848119  -0.87000000  0.00000000
H   13.80444494  1.26000000  0.00000000
H   20.62872512  1.26000000  0.00000000
H   15.03420101  3.39000000  0.00000000
H   17.21658502  4.65000000  0.00000000
H   19.39896905  3.39000000  0.00000000
H   12.57468886  -7.65000000  0.00000000
H   20.62872511  -9.78000000  0.00000000
H   13.80444493  -9.78000000  0.00000000
H   19.39896904  -11.91000000  0.00000000
H   17.21658503  -13.17000000  0.00000000
H   15.03420100  -11.91000000  0.00000000
H   30.46677370  -5.52000000  0.00000000
H   30.46677370  -3.00000000  0.00000000
H   22.41273746  -0.87000000  0.00000000
H   29.23701763  -0.87000000  0.00000000
H   23.64249353  1.26000000  0.00000000
H   25.82487753  2.52000000  0.00000000
H   28.00726157  1.26000000  0.00000000
H   30.46677371  -7.26000000  0.00000000
H   30.46677371  -9.78000000  0.00000000
H   21.18298138  -9.78000000  0.00000000
H   29.23701762  -11.91000000  0.00000000
H   22.41273745  -11.91000000  0.00000000
H   28.00726155  -14.04000000  0.00000000
H   25.82487755  -15.30000000  0.00000000
H   23.64249352  -14.04000000  0.00000000

