   38
cell= 12.07000000 0.00000000 0.00000000 0.00000000 8.60829252 0.00000000 0.00000000 0.00000000 10.00000000  nsc= 1 1 1
C   -4.97000000  1.22975607  0.00000000
C   -6.39000000  1.22975607  0.00000000
C   -4.26000000  2.45951215  0.00000000
C   -4.97000000  3.68926822  0.00000000
C   -6.39000000  3.68926822  0.00000000
C   -7.10000000  2.45951215  0.00000000
C   -4.26000000  4.91902429  0.00000000
C   -4.97000000  6.14878037  0.00000000
C   -6.39000000  6.14878037  0.00000000
C   -7.10000000  4.91902429  0.00000000
C   -4.26000000  7.37853644  0.00000000
C   -4.97000000  8.60829251  0.00000000
C   -6.39000000  8.60829251  0.00000000
C   -7.10000000  7.37853644  0.00000000
C   -8.52000000  2.45951215  0.00000000
C   -9.23000000  3.68926822  0.00000000
C   -8.52000000  4.91902430  0.00000000
C   -9.23000000  6.14878037  0.00000000
C   -8.52000000  7.37853644  0.00000000
C   -10.65000000  3.68926822  0.00000000
C   -11.36000000  4.91902429  0.00000000
C   -10.65000000  6.14878037  0.00000000
C   -14.91000000  8.60829251  0.00000000
C   -13.49000000  8.60829251  0.00000000
C   -15.62000000  7.37853643  0.00000000
C   -14.91000000  6.14878036  0.00000000
C   -13.49000000  6.14878036  0.00000000
C   -12.78000000  7.37853643  0.00000000
C   -15.62000000  4.91902429  0.00000000
C   -14.91000000  3.68926821  0.00000000
C   -13.49000000  3.68926821  0.00000000
C   -12.78000000  4.91902429  0.00000000
C   -15.62000000  2.45951214  0.00000000
C   -14.91000000  1.22975607  0.00000000
C   -13.49000000  1.22975607  0.00000000
C   -12.78000000  2.45951214  0.00000000
C   -11.36000000  7.37853643  0.00000000
C   -11.36000000  2.45951214  0.00000000

