151

H        -0.162223864    -1.325481071    -0.036307740
H        -2.366819950    -0.186518574    -0.036260387
C        -1.438249809     0.413394710    -0.037117908
C        -2.803990977     2.519341213    -0.038509407
H         2.365460709    -1.201622817    -0.037746522
C        -0.211379972    -0.221331152    -0.037103174
C         1.035841867     0.521342346    -0.037911612
C        -1.549588212     1.860527786    -0.038170382
C        -0.302594128     2.614077659    -0.038673901
C        -2.906584342     3.951392421    -0.039360041
C        -1.637339078     4.653788142    -0.039604995
H         4.842848739    -1.066641194    -0.037287684
C         2.297515445    -0.097874382    -0.037991224
C         3.502783360     0.666493222    -0.038179696
C         0.969294460     1.968129405    -0.038464355
C         2.168247880     2.762983635    -0.038773129
C        -0.355112388     4.038408949    -0.039297301
C         0.827810860     4.868724739    -0.039525367
C        -1.653936684     6.050209940    -0.040082671
C        -0.543137717     6.963308942    -0.040232446
C         4.787809130     0.037001475    -0.037671638
C         5.956913012     0.789712348    -0.037511850
C         3.448234373     2.111418028    -0.038515661
C         4.667418906     2.883656994    -0.038474513
C         2.097810810     4.209016860    -0.039156104
C         3.320464100     4.974875321    -0.039103635
C         0.757247588     6.346273603    -0.040011613
C         1.974535679     7.070199527    -0.040162526
H         6.920172580     0.253105962    -0.036733095
C         5.935742244     2.221575021    -0.038137627
C         4.595098789     4.333864550    -0.038669379
C         5.807766579     5.120988544    -0.038286702
C         3.244738964     6.423326741    -0.039597805
C         4.447278056     7.177231300    -0.039248742
H         1.942971264     8.174940181    -0.040599451
C         5.725054523     6.571091416    -0.038193955
H         4.351102900     8.276033416    -0.040049778
H         8.533781718     1.314984920    -0.040031541
C         7.170406048     3.015325204    -0.038532171
H        10.962777844     1.432655338    -0.040889526
C         8.436629552     2.413936120    -0.039389663
C         9.649312160     3.170748746    -0.039655115
C         7.086330921     4.471168390    -0.038289875
C         8.291583749     5.258890668    -0.038439312
C         6.946953860     7.364416977    -0.037289106
H         5.950450495     9.334723347    -0.033996365
H        13.435266756     1.527273759    -0.041170954
C        10.912056141     2.537158055    -0.040382983
C        12.121395628     3.283045480    -0.040538349
C         9.577432182     4.620483401    -0.039080073
C        10.786957025     5.389326333    -0.039490190
C         8.218427518     6.705470849    -0.037869272
C         9.436674368     7.479968616    -0.037917440
C         6.917118511     8.804897370    -0.035641192
C         8.075983351     9.558607292    -0.035522368
C        13.396026555     2.631243087    -0.040918198
C        14.570599797     3.384569278    -0.040847579
C        12.064459435     4.733900946    -0.040332723
C        13.289500221     5.498850872    -0.041022858
C        10.715106674     6.835351035    -0.038956933
C        11.923371027     7.613536069    -0.039834389
C         9.370634813     8.928711629    -0.037064220
C        10.559734872     9.684219483    -0.037773868
H         8.020871165    10.662126144    -0.034073254
H        15.552417966     2.878933851    -0.040863806
C        14.517991198     4.801045874    -0.040875666
H        15.471035491     5.356030230    -0.040700388
C        13.216931771     6.972223494    -0.041684913
C        14.371343675     7.787491205    -0.044426826
C        11.838783737     9.061138096    -0.039483440
C        13.041825004     9.835748573    -0.041297755
H        10.499238789    10.788203151    -0.037225427
H        15.374133500     7.328349210    -0.047126830
C        14.285228391     9.201656911    -0.044069815
H        15.212497860     9.801360329    -0.046222104
H        12.971536730    10.938204160    -0.040854022
H        -3.723821594     1.904781274    -0.038013293
H        -5.093586048     4.125554811    -0.039903865
C        -4.148934452     4.700224038    -0.039922013
C        -4.161616114     6.132695830    -0.040548422
H        -6.907135135     5.700058508    -0.041134819
C        -6.624171031     6.768875836    -0.041728150
H        -9.295315347     6.265462945    -0.041795102
C        -9.050336782     7.342887670    -0.043279933
H       -11.124326647     7.983281516    -0.046212691
C        -2.882752423     6.725421979    -0.040456373
C        -2.574839315     8.103288680    -0.040744490
C        -5.271165813     7.128965593    -0.041491309
C        -4.953755253     8.570329261    -0.042283391
C        -7.676055344     7.742698090    -0.043161698
C        -7.356954418     9.155534722    -0.045198863
C       -10.066085816     8.299159421    -0.045779731
C        -9.746011070     9.684721188    -0.048323590
C        -1.158315987     8.332603655    -0.040547153
C        -0.783731278     9.696932491    -0.040562816
C        -3.588189060     9.052495576    -0.041428092
C        -3.188809251    10.420648844    -0.041313395
C        -5.971002438     9.562201850    -0.044240201
C        -5.604192377    10.981359391    -0.044273284
C        -8.413185433    10.121638616    -0.048190841
C        -8.100688747    11.607364563    -0.053406555
H       -10.563377813    10.429561513    -0.050887468
H         0.282739854     9.980925867    -0.040637030
C        -1.781324973    10.738588579    -0.040577624
C        -4.233235564    11.409603424    -0.042033779
C        -3.874473084    12.804355938    -0.040915898
C        -6.628071513    11.986285163    -0.046511906
C        -6.275472393    13.338780367    -0.044429513
H        -8.585244577    12.071763861    -0.947205083
C        -4.918570010    13.795551995    -0.041191699
H        -7.094142653    14.079748294    -0.046389170
H         0.730396877    11.866979221    -0.038557048
C        -1.425001810    12.170462613    -0.039811389
H         2.420408554    13.607355290    -0.035747126
C        -0.093550406    12.601243640    -0.038799929
C         0.275075467    13.982761613    -0.038162444
C        -2.484114673    13.181614725    -0.039800548
C        -2.143899256    14.577917839    -0.039156958
C        -4.569177479    15.202192853    -0.039207411
H        -6.642033975    15.963617243    -0.036658732
H         4.163692302    15.363517732    -0.032861372
C         1.630243715    14.380756215    -0.036829123
C         2.005039563    15.750467997    -0.036556749
C        -0.766392994    14.992174715    -0.038661244
C        -0.408187457    16.378011942    -0.038629319
C        -3.186730670    15.585317064    -0.038822378
C        -2.823736311    16.983554205    -0.038230330
C        -5.574113791    16.237964606    -0.037569927
C        -5.239140523    17.577296540    -0.036666846
C         3.381977980    16.144135416    -0.034579217
C         3.726281541    17.495718217    -0.034161043
C         0.972983289    16.771567036    -0.038075929
C         1.346669796    18.166565296    -0.038461440
C        -1.449364037    17.385656641    -0.038592017
C        -1.096909700    18.779024551    -0.039229351
C        -3.860534505    17.998941375    -0.037474006
C        -3.506775448    19.361206884    -0.037707664
H        -6.030378811    18.348560729    -0.035291843
H         4.788888388    17.796808499    -0.031864497
C         2.720420140    18.495163209    -0.036164262
H         3.038140078    19.551389982    -0.035266975
C         0.286987264    19.193709246    -0.040392948
C         0.574000249    20.576866750    -0.043394560
C        -2.146458950    19.779459728    -0.039155920
C        -1.795666312    21.166524850    -0.040988386
H        -4.303871292    20.127393239    -0.037051938
H         1.620407136    20.925456922    -0.045989984
C        -0.454380679    21.551734973    -0.043656645
H        -0.185631415    22.622948916    -0.046044630
H        -2.599356683    21.924467346    -0.040920900
H        -8.597216541    12.081603207     0.828358513
