   80
cell= 10.72076490 0.00000000 0.00000000 0.00000000 100.00000000 0.00000000 0.00000000 0.00000000 100.00000000  nsc= 1 1 1
C   1.41062696  -0.16288517  0.00000000
C   2.25700313  0.97731103  0.00000000
C   3.94975549  3.25770342  0.00000000
C   4.79613166  4.39789962  0.00000000
C   4.23188088  5.70098099  0.00000000
C   6.48888401  6.67829201  0.00000000
C   7.33526019  7.81848821  0.00000000
C   17.49177431  9.12156958  0.00000000
C   18.33815049  10.26176578  0.00000000
C   9.02801254  10.09888061  0.00000000
C   9.87438872  11.23907680  0.00000000
C   9.31013794  12.54215817  0.00000000
C   10.15651411  13.68235437  0.00000000
C   11.56714107  13.51946920  0.00000000
C   12.41351725  14.65966540  0.00000000
C   11.84926647  15.96274676  0.00000000
C   12.69564264  17.10294296  0.00000000
C   14.10626960  16.94005779  0.00000000
C   1.97487775  -1.46596654  0.00000000
C   3.38550470  -1.62885171  0.00000000
C   4.23188088  -0.48865551  0.00000000
C   3.66763010  0.81442585  0.00000000
C   4.51400628  1.95462205  0.00000000
C   5.92463323  1.79173688  0.00000000
C   6.77100941  2.93193308  0.00000000
C   6.20675863  4.23501445  0.00000000
C   7.05313480  5.37521064  0.00000000
C   8.46376176  5.21232547  0.00000000
C   9.31013794  6.35252167  0.00000000
C   8.74588716  7.65560304  0.00000000
C   9.59226333  8.79579923  0.00000000
C   11.00289029  8.63291407  0.00000000
C   11.84926647  9.77311026  0.00000000
C   11.28501568  11.07619163  0.00000000
C   12.13139186  12.21638783  0.00000000
C   13.54201882  12.05350266  0.00000000
C   14.38839499  13.19369885  0.00000000
C   13.82414421  14.49678022  0.00000000
C   14.67052039  15.63697642  0.00000000
C   16.08114735  15.47409125  0.00000000
C   3.94975549  -2.93193308  0.00000000
C   5.36038245  -3.09481825  0.00000000
C   6.20675863  -1.95462205  0.00000000
C   5.64250784  -0.65154068  0.00000000
C   6.48888401  0.48865552  0.00000000
C   7.89951098  0.32577034  0.00000000
C   8.74588716  1.46596654  0.00000000
C   8.18163637  2.76904791  0.00000000
C   9.02801254  3.90924411  0.00000000
C   10.43863951  3.74635893  0.00000000
C   11.28501568  4.88655513  0.00000000
C   10.72076490  6.18963650  0.00000000
C   11.56714107  7.32983270  0.00000000
C   12.97776804  7.16694752  0.00000000
C   13.82414421  8.30714372  0.00000000
C   13.25989342  9.61022509  0.00000000
C   14.10626960  10.75042129  0.00000000
C   15.51689657  10.58753612  0.00000000
C   16.36327274  11.72773231  0.00000000
C   15.79902195  13.03081369  0.00000000
C   16.64539813  14.17100988  0.00000000
C   18.05602509  14.00812471  0.00000000
C   5.92463323  -4.39789962  0.00000000
C   7.33526019  -4.56078479  0.00000000
C   8.18163637  -3.42058859  0.00000000
C   7.61738559  -2.11750722  0.00000000
C   8.46376176  -0.97731103  0.00000000
C   9.87438872  -1.14019620  0.00000000
C   10.72076490  0.00000000  0.00000000
C   10.15651411  1.30308137  0.00000000
C   11.00289029  2.44327757  0.00000000
C   1.6927523499999992  2.28039240  0.00000000
C   2.5391285199999984  3.42058859  0.00000000
C   12.69564264  4.72366996  0.00000000
C   13.54201882  5.86386616  0.00000000
C   15.79902195  6.84117719  0.00000000
C   15.23477117  8.14425855  0.00000000
C   16.08114735  9.28445475  0.00000000
C   17.77389970  11.56484714  0.00000000
C   18.62027588  12.70504334  0.00000000

