124

C        -3.851147620     1.366353050    -0.000000110
C        -3.877246220     2.745797100     0.000000070
C        -2.613847740     0.616323310    -0.000000610
C        -1.377530480     1.343508120    -0.000000860
C        -1.404478350     2.780733210    -0.000000260
C        -2.655145630     3.506777950     0.000000030
C        -0.128530860     0.620626360    -0.000001250
C         1.106990530     1.361837240    -0.000000920
C         1.064779890     2.795634000    -0.000000290
C        -0.175750610     3.515770870    -0.000000140
C         2.363038600     0.656528630    -0.000000740
C         3.603596040     1.418002440     0.000001310
C         3.513815700     2.812855670     0.000001710
C         2.294104870     3.541112960     0.000000410
C        -2.655061670     4.917362310     0.000000070
C        -1.440906470     5.665336510     0.000000020
C        -0.185494240     4.950576110     0.000000040
C         1.060230920     5.687816900     0.000000010
C         2.280882750     4.959335690     0.000000200
C        -1.426192960     7.096110850    -0.000000030
C        -0.208651760     7.802927220    -0.000000030
C         1.020378300     7.119002350    -0.000000020
C         3.677660570    -1.433582640    -0.000002000
C         3.690962110    -2.859094100     0.000004630
C         2.383553600    -0.783433040    -0.000001690
C         1.135804170    -1.543906960    -0.000002180
C         1.147315700    -3.007556990     0.000001890
C         2.453892650    -3.553898460     0.000013040
C        -0.109081200    -0.817451780    -0.000001820
C        -1.341721570    -1.562287200    -0.000000720
C        -1.326310050    -3.026758090    -0.000000520
C        -0.111256280    -3.848332170     0.000000080
C        -2.590763800    -0.821440600    -0.000000550
C        -3.854297760    -1.511428820    -0.000000180
C        -3.876473890    -2.874348550    -0.000000230
C        -2.650614440    -3.624327460    -0.000000290
C         2.136872500    -6.786879150    -0.000014440
C         0.623400680    -6.562374980    -0.000004780
C        -0.280924600    -5.382207370    -0.000001080
C        -1.680367540    -5.866364360     0.000000790
C        -2.786184430    -4.997077790     0.000000620
C         0.117688180    -7.888987480     0.000000900
C        -1.231677330    -8.275967200     0.000002990
C        -2.127503570    -7.231006520     0.000001350
C         4.925595260    -0.691792420    -0.000001550
C         4.912482310     0.733867280     0.000001290
C         6.219295410    -1.342818370    -0.000000890
C         7.467490640    -0.583456570    -0.000000860
C         7.456490580     0.880113920     0.000000950
C         6.150128920     1.427961880     0.000005070
C         8.711941190    -1.311252970    -0.000000750
C         9.945297800    -0.567883100    -0.000000190
C         9.930846670     0.896678740    -0.000000030
C         8.716061940     1.719022400     0.000000460
C        11.193998110    -1.309482050    -0.000000040
C        12.457976150    -0.620344700     0.000000010
C        12.481262590     0.742588270    -0.000000010
C        11.255771050     1.493115860    -0.000000090
C         6.469735620     4.658949190    -0.000003910
C         7.983137120     4.432241590    -0.000001090
C         8.886963080     3.252080520    -0.000000080
C        10.286641140     3.735233690     0.000000260
C        11.392191870     2.865722860     0.000000170
C         8.489775230     5.758385120     0.000000240
C         9.839384310     6.144804230     0.000001020
C        10.734663930     5.099556830     0.000000290
C        12.452830890    -3.498519140     0.000000030
C        12.477848190    -4.878053780     0.000000010
C        11.216102440    -2.747439280    -0.000000110
C         9.979352160    -3.473465110    -0.000000310
C        10.005335010    -4.910892860    -0.000000260
C        11.255279570    -5.638475130    -0.000000100
C         8.730962380    -2.749457160    -0.000000640
C         7.495096220    -3.489225860    -0.000000250
C         7.536457510    -4.923192900     0.000000030
C         8.776030570    -5.644847440    -0.000000320
C         6.239679020    -2.782765410     0.000000090
C         4.999242420    -3.543791430     0.000004000
C         5.088047780    -4.938701760     0.000005710
C         6.306834500    -5.667730880     0.000001860
C        11.253899120    -7.049221010    -0.000000080
C        10.038953130    -7.795955350    -0.000000110
C         8.784264940    -7.079771480    -0.000000120
C         7.537955120    -7.816214270     0.000000040
C         6.318395270    -7.085991410     0.000000900
C        10.022767990    -9.226925110    -0.000000060
C         8.804566380    -9.932774470    -0.000000090
C         7.576272270    -9.247489220    -0.000000110
H        -4.819118560     0.842308900     0.000000050
H        -4.843513410     3.282092440     0.000000120
H         4.413617210     3.427991520     0.000003390
H        -3.620611690     5.456123770     0.000000020
H         3.242594970     5.506962490     0.000000270
H        -2.386077980     7.642793060     0.000000020
H        -0.218972500     8.907625750    -0.000000020
H         1.970713180     7.682266560    -0.000000030
H        -4.803693480    -0.957209840     0.000000200
H        -4.828225610    -3.434972710    -0.000000100
H         2.430395830    -7.372188610    -0.899664030
H         2.430416230    -7.372139300     0.899661490
H        -3.801299660    -5.432644800     0.000000760
H         0.869874750    -8.698774260     0.000001230
H        -1.536330630    -9.335971770     0.000003080
H        -3.217118310    -7.408979280     0.000000130
H        13.406878390    -1.175345450     0.000000020
H        13.433378460     1.302662550    -0.000000100
H         6.177612590     5.244962840    -0.899638130
H         6.177607150     5.244951120     0.899637110
H        12.407618320     3.300659750     0.000000200
H         7.738355030     6.568919150     0.000000220
H        10.144534960     7.204659730     0.000000650
H        11.824451750     5.276395050     0.000000010
H        13.421374780    -2.975524970     0.000000030
H        13.443661950    -5.415079000    -0.000000010
H         4.188081410    -5.553311840     0.000012100
H        12.218924880    -7.588946730    -0.000000010
H         5.355998200    -7.632351630     0.000000930
H        10.982264980    -9.774283350     0.000000010
H         8.813837480   -11.037442460    -0.000000060
H         6.625200550    -9.809536730     0.000000010
H         5.820322060     3.792663880    -0.000015970
H         6.123186490     2.505205340     0.000014390
H         2.783446750    -5.918648090    -0.000058220
H         2.482235760    -4.631068320     0.000037220
